Version 4.1
SHEET 1 880 680
WIRE 256 48 128 48
WIRE 432 48 336 48
WIRE -208 112 -208 48
WIRE -208 112 -256 112
WIRE -160 112 -208 112
WIRE 64 112 -80 112
WIRE 208 112 208 -32
WIRE 64 128 64 112
WIRE 128 128 128 48
WIRE 128 128 64 128
WIRE 176 128 128 128
WIRE 432 144 432 48
WIRE 432 144 240 144
WIRE 496 144 432 144
WIRE 176 160 64 160
WIRE 432 224 432 144
WIRE -208 240 -256 240
WIRE -160 240 -208 240
WIRE 64 240 64 160
WIRE 64 240 -80 240
WIRE 208 272 208 176
WIRE 64 288 64 240
WIRE -208 368 -208 240
FLAG 208 -112 0
FLAG 208 352 0
FLAG 64 368 0
FLAG -336 112 0
FLAG -336 240 0
FLAG -208 48 V1
FLAG -208 368 V2
FLAG 432 224 V_Out
SYMBOL OpAmps\\UniversalOpAmp2 208 144 R0
SYMATTR InstName U1
SYMBOL voltage 208 256 R0
WINDOW 123 0 0 Left 0
WINDOW 39 0 0 Left 0
SYMATTR InstName V1
SYMATTR Value -10
SYMBOL voltage 208 -16 R180
WINDOW 0 24 96 Left 2
WINDOW 3 24 16 Left 2
WINDOW 123 0 0 Left 0
WINDOW 39 0 0 Left 0
SYMATTR InstName V2
SYMATTR Value 10
SYMBOL voltage -240 112 R90
WINDOW 0 -32 56 VBottom 2
WINDOW 3 32 56 VTop 2
WINDOW 123 0 0 Left 0
WINDOW 39 0 0 Left 0
SYMATTR InstName V3
SYMATTR Value SINE(0 8 20)
SYMBOL voltage -240 240 R90
WINDOW 0 -32 56 VBottom 2
WINDOW 3 32 56 VTop 2
WINDOW 123 0 0 Left 0
WINDOW 39 0 0 Left 0
SYMATTR InstName V4
SYMATTR Value SINE(0 5 10)
SYMBOL res -64 96 R90
WINDOW 0 0 56 VBottom 2
WINDOW 3 32 56 VTop 2
SYMATTR InstName R1
SYMATTR Value 100
SYMBOL res -64 224 R90
WINDOW 0 0 56 VBottom 2
WINDOW 3 32 56 VTop 2
SYMATTR InstName R2
SYMATTR Value 100
SYMBOL res 80 384 R180
WINDOW 0 36 76 Left 2
WINDOW 3 36 40 Left 2
SYMATTR InstName R4
SYMATTR Value 200
SYMBOL res 240 64 R270
WINDOW 0 32 56 VTop 2
WINDOW 3 0 56 VBottom 2
SYMATTR InstName R3
SYMATTR Value 200
TEXT -368 448 Left 2 !.tran 1
