Version 4.1
SHEET 1 880 680
WIRE -192 0 -192 -32
WIRE -192 0 -272 0
WIRE -176 0 -192 0
WIRE -48 0 -96 0
WIRE 192 32 80 32
WIRE 304 32 272 32
WIRE -192 144 -192 112
WIRE -192 144 -272 144
WIRE -176 144 -192 144
WIRE -48 144 -48 0
WIRE -48 144 -96 144
WIRE 80 144 80 32
WIRE 80 144 -48 144
WIRE 128 144 80 144
WIRE 304 160 304 32
WIRE 304 160 192 160
WIRE 400 160 304 160
WIRE 128 176 48 176
WIRE 304 224 304 160
WIRE 48 240 48 176
WIRE -192 288 -192 256
WIRE -192 288 -272 288
WIRE -176 288 -192 288
WIRE -48 288 -48 144
WIRE -48 288 -96 288
FLAG -560 -80 0
FLAG -432 -160 0
FLAG 48 240 0
FLAG -352 0 0
FLAG -352 144 0
FLAG -352 288 0
FLAG -192 112 V2
FLAG -192 -32 V1
FLAG -192 256 V3
FLAG 304 224 V_Out
FLAG -432 -80 Vp
FLAG 160 128 Vp
FLAG -560 -160 Vn
FLAG 160 192 Vn
SYMBOL OpAmps\\UniversalOpAmp2 160 160 R0
SYMATTR InstName U1
SYMBOL voltage -560 -176 R0
WINDOW 123 0 0 Left 0
WINDOW 39 0 0 Left 0
SYMATTR InstName V2
SYMATTR Value -10
SYMBOL res 288 16 R90
WINDOW 0 0 56 VBottom 2
WINDOW 3 32 56 VTop 2
SYMATTR InstName R2
SYMATTR Value 20k
SYMBOL voltage -432 -64 R180
WINDOW 0 24 96 Left 2
WINDOW 3 24 16 Left 2
WINDOW 123 0 0 Left 0
WINDOW 39 0 0 Left 0
SYMATTR InstName V1
SYMATTR Value 10
SYMBOL res -80 128 R90
WINDOW 0 0 56 VBottom 2
WINDOW 3 32 56 VTop 2
SYMATTR InstName R1
SYMATTR Value 10k
SYMBOL res -80 -16 R90
WINDOW 0 0 56 VBottom 2
WINDOW 3 32 56 VTop 2
SYMATTR InstName R3
SYMATTR Value 10k
SYMBOL res -80 272 R90
WINDOW 0 0 56 VBottom 2
WINDOW 3 32 56 VTop 2
SYMATTR InstName R4
SYMATTR Value 10k
SYMBOL voltage -256 0 R90
WINDOW 0 -32 56 VBottom 2
WINDOW 3 32 56 VTop 2
WINDOW 123 0 0 Left 0
WINDOW 39 0 0 Left 0
SYMATTR InstName V3
SYMATTR Value SINE(0 1 10)
SYMBOL voltage -256 144 R90
WINDOW 0 -32 56 VBottom 2
WINDOW 3 32 56 VTop 2
WINDOW 123 0 0 Left 0
WINDOW 39 0 0 Left 0
SYMATTR InstName V4
SYMATTR Value SINE(0 2 20)
SYMBOL voltage -256 288 R90
WINDOW 0 -32 56 VBottom 2
WINDOW 3 32 56 VTop 2
WINDOW 123 0 0 Left 0
WINDOW 39 0 0 Left 0
SYMATTR InstName V5
SYMATTR Value SINE(0 3 30)
TEXT -320 376 Left 2 !.tran 1 startup
TEXT -304 -112 Left 2 ;Summing OP Amp
