Version 4.1
SHEET 1 880 680
WIRE 336 208 64 208
WIRE 208 288 64 288
WIRE 336 288 336 272
WIRE 336 288 208 288
WIRE 208 320 208 288
FLAG 208 320 0
SYMBOL voltage 64 192 M0
WINDOW 123 24 124 Left 2
WINDOW 39 0 0 Left 0
SYMATTR InstName V1
SYMATTR Value SINE(0 1 10)
SYMATTR Value2 AC 1
SYMBOL Misc\\xtal 320 208 R0
SYMATTR InstName C1
SYMATTR Value 10”
SYMATTR SpiceLine Rser=10 Lser=1m Rpar=0.1 Cpar=1n
TEXT 80 384 Left 2 !.ac dec 1k 100 10Meg
